Version 4
SHEET 1 4836 1228
WIRE 768 -240 768 -304
WIRE 512 -224 512 -240
WIRE 608 -224 512 -224
WIRE 512 -208 512 -224
WIRE 768 -96 768 -160
WIRE 864 64 320 64
WIRE 1184 64 960 64
WIRE 1504 64 1184 64
WIRE 320 96 320 64
WIRE 960 96 960 64
WIRE 1184 96 1184 64
WIRE 192 208 160 208
WIRE 320 208 320 160
WIRE 320 208 272 208
WIRE 368 208 320 208
WIRE 496 208 448 208
WIRE 656 208 496 208
WIRE 864 208 864 64
WIRE 896 208 864 208
WIRE 912 208 896 208
WIRE 960 208 960 160
WIRE 1024 208 960 208
WIRE 1184 208 1184 176
WIRE 1184 208 1088 208
WIRE 1296 208 1184 208
WIRE 1504 208 1504 64
WIRE 1552 208 1504 208
WIRE 496 240 496 208
WIRE 864 240 864 208
WIRE 864 240 832 240
WIRE 960 240 960 208
WIRE 1504 240 1504 208
WIRE 1504 240 1472 240
WIRE 656 272 640 272
WIRE 640 432 640 272
WIRE 864 432 864 240
WIRE 864 432 640 432
WIRE 1072 480 1008 480
WIRE 1232 480 1152 480
WIRE 912 624 864 624
WIRE 1008 624 1008 480
WIRE 1008 624 992 624
WIRE 1024 624 1008 624
WIRE 1232 656 1232 480
WIRE 1232 656 1200 656
FLAG 608 -224 0
FLAG 512 -320 VCC
IOPIN 512 -320 Out
FLAG 512 -128 VEE
IOPIN 512 -128 Out
FLAG 336 -288 VCC
IOPIN 336 -288 In
FLAG 336 -160 VEE
IOPIN 336 -160 In
FLAG 768 -304 Vi
IOPIN 768 -304 Out
FLAG 768 -96 0
FLAG 1120 592 VCC
IOPIN 1120 592 In
FLAG 1120 720 VEE
IOPIN 1120 720 In
FLAG 864 624 0
FLAG 496 304 0
FLAG 1552 208 Vo_f
IOPIN 1552 208 Out
FLAG 1024 688 Vo_f
IOPIN 1024 688 In
FLAG 1232 656 Vo
IOPIN 1232 656 Out
FLAG 960 320 0
FLAG 160 208 Vi
IOPIN 160 208 In
FLAG 752 304 VCC
IOPIN 752 304 In
FLAG 752 176 VEE
IOPIN 752 176 In
FLAG 1392 176 VCC
IOPIN 1392 176 In
FLAG 1392 304 VEE
IOPIN 1392 304 In
FLAG 1296 272 0
SYMBOL voltage 512 -336 R0
WINDOW 123 0 0 Left 0
WINDOW 39 0 0 Left 0
SYMATTR InstName V1
SYMATTR Value 10
SYMBOL voltage 512 -224 R0
WINDOW 123 0 0 Left 0
WINDOW 39 0 0 Left 0
SYMATTR InstName V2
SYMATTR Value 10
SYMBOL Opampku 320 -224 R0
SYMATTR InstName X1
SYMBOL voltage 768 -256 R0
WINDOW 0 63 26 Left 2
WINDOW 3 85 130 Left 2
WINDOW 123 53 54 Left 2
WINDOW 39 85 99 Left 2
SYMATTR InstName V3
SYMATTR Value SINE(100m 1 1k)
SYMATTR Value2 AC 5
SYMATTR SpiceLine Rser=50
SYMBOL Opampku 1104 656 R0
SYMATTR InstName X8
SYMBOL res 1168 464 R90
WINDOW 0 0 56 VBottom 2
WINDOW 3 32 56 VTop 2
SYMATTR InstName RF_X
SYMATTR Value 100k
SYMBOL res 1008 608 R90
WINDOW 0 0 56 VBottom 2
WINDOW 3 32 56 VTop 2
SYMATTR InstName R_X
SYMATTR Value 10k
SYMBOL res 288 192 R90
WINDOW 0 0 56 VBottom 2
WINDOW 3 32 56 VTop 2
SYMATTR InstName R5
SYMATTR Value 1k5
SYMBOL res 464 192 R90
WINDOW 0 0 56 VBottom 2
WINDOW 3 32 56 VTop 2
SYMATTR InstName R7
SYMATTR Value 3k7
SYMBOL cap 480 240 R0
WINDOW 3 47 49 Left 2
SYMATTR Value 4.7µ
SYMATTR InstName C6
SYMBOL cap 304 96 R0
SYMATTR InstName C7
SYMATTR Value 10µ
SYMBOL cap 1088 192 R90
WINDOW 0 0 32 VBottom 2
WINDOW 3 32 32 VTop 2
SYMATTR InstName C8
SYMATTR Value 10µ
SYMBOL cap 960 192 R90
WINDOW 0 0 32 VBottom 2
WINDOW 3 32 32 VTop 2
SYMATTR InstName C1
SYMATTR Value 10µ
SYMBOL cap 944 96 R0
SYMATTR InstName C2
SYMATTR Value 10µ
SYMBOL res 944 224 R0
SYMATTR InstName R1
SYMATTR Value 82k
SYMBOL res 1168 80 R0
SYMATTR InstName R2
SYMATTR Value 330k
SYMBOL Opampku 736 240 M180
SYMATTR InstName X2
SYMBOL Opampku 1376 240 R0
SYMATTR InstName X3
TEXT 896 -336 Left 2 ;Aturan:\n1. Nilai-nilai resistor diatur dengan maksimal 3 kombinasi resistor;\n2. Nilai-nilai kapasitor tetap; dan\n3. Digunakan op-amp LM741 dan model op-amp berasal dari praktikum.
TEXT 832 -96 Left 2 !.ac dec 100 0.001 1k
TEXT 1000 416 Left 2 ;Noninverting Amplifier
TEXT 472 24 Left 2 ;Sallen-Key LPF
TEXT 1112 24 Left 2 ;MFB HPF
